464
graphite coordinates with Cl at (0,0,0)
Cl         0.0000000          0.0000000          0.0000000
Si        -0.0820000         -0.0480000         -2.7010000
Si         0.0820000         -2.5030000          0.9000000
Si        -2.1260000          1.3220000         -0.9000000
O         -1.4870000          0.4400000         -2.0720000
O          0.3630000          0.9470000          1.5300000
O         -1.0020000          2.2960000         -0.2710000
O         -0.3630000         -1.5070000          2.0720000
O          1.0020000         -0.1600000         -1.5300000
O          1.4880000         -2.0160000          0.2710000
Si        -0.0820000         -0.0480000          2.7010000
Si         0.0820000         -2.5030000          6.3020000
Si        -2.1260000          1.3220000          4.5020000
O         -1.4870000          0.4400000          3.3300000
O          0.3630000          0.9470000          6.9320000
O         -1.0020000          2.2960000          5.1310000
O         -0.3630000         -1.5070000          7.4740000
O          1.0020000         -0.1600000          3.8720000
O          1.4880000         -2.0160000          5.6730000
Si         0.0820000         -2.5030000         -4.5020000
Si        -2.1260000          1.3220000         -6.3020000
O         -1.4870000          0.4400000         -7.4740000
O          0.3630000          0.9470000         -3.8720000
O         -1.0020000          2.2960000         -5.6730000
O         -0.3630000         -1.5070000         -3.3300000
O          1.0020000         -0.1600000         -6.9320000
O          1.4880000         -2.0160000         -5.1310000
Si        -0.0820000          4.8620000         -2.7010000
Si         0.0820000          2.4070000          0.9000000
Si        -2.1260000          6.2320000         -0.9000000
O         -1.4870000          5.3500000         -2.0720000
O          0.3630000          5.8570000          1.5300000
O         -1.0020000          7.2060000         -0.2710000
O         -0.3630000          3.4030000          2.0720000
O          1.0020000          4.7500000         -1.5300000
O          1.4880000          2.8940000          0.2710000
Si        -0.0820000         -4.9580000         -2.7010000
Si         0.0820000         -7.4130000          0.9000000
Si        -2.1260000         -3.5880000         -0.9000000
O         -1.4870000         -4.4700000         -2.0720000
O          0.3630000         -3.9630000          1.5300000
O         -1.0020000         -2.6140000         -0.2710000
O         -0.3630000         -6.4170000          2.0720000
O          1.0020000         -5.0700000         -1.5300000
O          1.4880000         -6.9260000          0.2710000
Si        -0.0820000          4.8620000          2.7010000
Si         0.0820000          2.4070000          6.3020000
Si        -2.1260000          6.2320000          4.5020000
O         -1.4870000          5.3500000          3.3300000
O          0.3630000          5.8570000          6.9320000
O         -1.0020000          7.2060000          5.1310000
O         -0.3630000          3.4030000          7.4740000
O          1.0020000          4.7500000          3.8720000
O          1.4880000          2.8940000          5.6730000
Si         0.0820000          2.4070000         -4.5020000
Si        -2.1260000          6.2320000         -6.3020000
O         -1.4870000          5.3500000         -7.4740000
O          0.3630000          5.8570000         -3.8720000
O         -1.0020000          7.2060000         -5.6730000
O         -0.3630000          3.4030000         -3.3300000
O          1.0020000          4.7500000         -6.9320000
O          1.4880000          2.8940000         -5.1310000
Si        -0.0820000         -4.9580000          2.7010000
Si         0.0820000         -7.4130000          6.3020000
Si        -2.1260000         -3.5880000          4.5020000
O         -1.4870000         -4.4700000          3.3300000
O          0.3630000         -3.9630000          6.9320000
O         -1.0020000         -2.6140000          5.1310000
O         -0.3630000         -6.4170000          7.4740000
O          1.0020000         -5.0700000          3.8720000
O          1.4880000         -6.9260000          5.6730000
Si         0.0820000         -7.4130000         -4.5020000
Si        -2.1260000         -3.5880000         -6.3020000
O         -1.4870000         -4.4700000         -7.4740000
O          0.3630000         -3.9630000         -3.8720000
O         -1.0020000         -2.6140000         -5.6730000
O         -0.3630000         -6.4170000         -3.3300000
O          1.0020000         -5.0700000         -6.9320000
O          1.4880000         -6.9260000         -5.1310000
Si         0.0820000          7.3170000          0.9000000
O          1.4880000          7.8040000          0.2710000
O         -1.0020000         -7.5240000         -0.2710000
Si         0.0820000          7.3170000          6.3020000
O          1.4880000          7.8040000          5.6730000
Si         0.0820000          7.3170000         -4.5020000
O          1.4880000          7.8040000         -5.1310000
O         -1.0020000         -7.5240000          5.1310000
O         -1.0020000         -7.5240000         -5.6730000
Si         4.1702000         -2.5030000         -2.7010000
Si         4.3342000         -4.9580000          0.9000000
Si         2.1262000         -1.1330000         -0.9000000
O          2.7652000         -2.0150000         -2.0720000
O          4.6152000         -1.5080000          1.5300000
O          3.2502000         -0.1590000         -0.2710000
O          3.8892000         -3.9620000          2.0720000
O          5.2542000         -2.6150000         -1.5300000
O          5.7402000         -4.4710000          0.2710000
Si        -4.3342000          2.4070000         -2.7010000
Si        -4.1702000         -0.0480000          0.9000000
Si        -6.3782000          3.7770000         -0.9000000
O         -5.7392000          2.8950000         -2.0720000
O         -3.8892000          3.4020000          1.5300000
O         -5.2542000          4.7510000         -0.2710000
O         -4.6152000          0.9480000          2.0720000
O         -3.2502000          2.2950000         -1.5300000
O         -2.7642000          0.4390000          0.2710000
Si         4.1702000         -2.5030000          2.7010000
Si         4.3342000         -4.9580000          6.3020000
Si         2.1262000         -1.1330000          4.5020000
O          2.7652000         -2.0150000          3.3300000
O          4.6152000         -1.5080000          6.9320000
O          3.2502000         -0.1590000          5.1310000
O          3.8892000         -3.9620000          7.4740000
O          5.2542000         -2.6150000          3.8720000
O          5.7402000         -4.4710000          5.6730000
Si         4.3342000         -4.9580000         -4.5020000
Si         2.1262000         -1.1330000         -6.3020000
O          2.7652000         -2.0150000         -7.4740000
O          4.6152000         -1.5080000         -3.8720000
O          3.2502000         -0.1590000         -5.6730000
O          3.8892000         -3.9620000         -3.3300000
O          5.2542000         -2.6150000         -6.9320000
O          5.7402000         -4.4710000         -5.1310000
Si        -4.3342000          2.4070000          2.7010000
Si        -4.1702000         -0.0480000          6.3020000
Si        -6.3782000          3.7770000          4.5020000
O         -5.7392000          2.8950000          3.3300000
O         -3.8892000          3.4020000          6.9320000
O         -5.2542000          4.7510000          5.1310000
O         -4.6152000          0.9480000          7.4740000
O         -3.2502000          2.2950000          3.8720000
O         -2.7642000          0.4390000          5.6730000
Si        -4.1702000         -0.0480000         -4.5020000
Si        -6.3782000          3.7770000         -6.3020000
O         -5.7392000          2.8950000         -7.4740000
O         -3.8892000          3.4020000         -3.8720000
O         -5.2542000          4.7510000         -5.6730000
O         -4.6152000          0.9480000         -3.3300000
O         -3.2502000          2.2950000         -6.9320000
O         -2.7642000          0.4390000         -5.1310000
Si         4.1702000          2.4070000         -2.7010000
Si         4.3342000         -0.0480000          0.9000000
Si         2.1262000          3.7770000         -0.9000000
O          2.7652000          2.8950000         -2.0720000
O          4.6152000          3.4020000          1.5300000
O          3.2502000          4.7510000         -0.2710000
O          3.8892000          0.9480000          2.0720000
O          5.2542000          2.2950000         -1.5300000
O          5.7402000          0.4390000          0.2710000
Si         4.1702000         -7.4130000         -2.7010000
Si         2.1262000         -6.0430000         -0.9000000
O          2.7652000         -6.9250000         -2.0720000
O          4.6152000         -6.4180000          1.5300000
O          3.2502000         -5.0690000         -0.2710000
O          5.2542000         -7.5250000         -1.5300000
Si        -4.3342000          7.3170000         -2.7010000
Si        -4.1702000          4.8620000          0.9000000
O         -5.7392000          7.8050000         -2.0720000
O         -4.6152000          5.8580000          2.0720000
O         -3.2502000          7.2050000         -1.5300000
O         -2.7642000          5.3490000          0.2710000
Si        -4.3342000         -2.5030000         -2.7010000
Si        -4.1702000         -4.9580000          0.9000000
Si        -6.3782000         -1.1330000         -0.9000000
O         -5.7392000         -2.0150000         -2.0720000
O         -3.8892000         -1.5080000          1.5300000
O         -5.2542000         -0.1590000         -0.2710000
O         -4.6152000         -3.9620000          2.0720000
O         -3.2502000         -2.6150000         -1.5300000
O         -2.7642000         -4.4710000          0.2710000
Si         4.1702000          2.4070000          2.7010000
Si         4.3342000         -0.0480000          6.3020000
Si         2.1262000          3.7770000          4.5020000
O          2.7652000          2.8950000          3.3300000
O          4.6152000          3.4020000          6.9320000
O          3.2502000          4.7510000          5.1310000
O          3.8892000          0.9480000          7.4740000
O          5.2542000          2.2950000          3.8720000
O          5.7402000          0.4390000          5.6730000
Si         4.3342000         -0.0480000         -4.5020000
Si         2.1262000          3.7770000         -6.3020000
O          2.7652000          2.8950000         -7.4740000
O          4.6152000          3.4020000         -3.8720000
O          3.2502000          4.7510000         -5.6730000
O          3.8892000          0.9480000         -3.3300000
O          5.2542000          2.2950000         -6.9320000
O          5.7402000          0.4390000         -5.1310000
Si         4.1702000         -7.4130000          2.7010000
Si         2.1262000         -6.0430000          4.5020000
O          2.7652000         -6.9250000          3.3300000
O          4.6152000         -6.4180000          6.9320000
O          3.2502000         -5.0690000          5.1310000
O          5.2542000         -7.5250000          3.8720000
Si         2.1262000         -6.0430000         -6.3020000
O          2.7652000         -6.9250000         -7.4740000
O          4.6152000         -6.4180000         -3.8720000
O          3.2502000         -5.0690000         -5.6730000
O          5.2542000         -7.5250000         -6.9320000
Si        -4.3342000          7.3170000          2.7010000
Si        -4.1702000          4.8620000          6.3020000
O         -5.7392000          7.8050000          3.3300000
O         -4.6152000          5.8580000          7.4740000
O         -3.2502000          7.2050000          3.8720000
O         -2.7642000          5.3490000          5.6730000
Si        -4.1702000          4.8620000         -4.5020000
O         -5.7392000          7.8050000         -7.4740000
O         -4.6152000          5.8580000         -3.3300000
O         -3.2502000          7.2050000         -6.9320000
O         -2.7642000          5.3490000         -5.1310000
Si        -4.3342000         -2.5030000          2.7010000
Si        -4.1702000         -4.9580000          6.3020000
Si        -6.3782000         -1.1330000          4.5020000
O         -5.7392000         -2.0150000          3.3300000
O         -3.8892000         -1.5080000          6.9320000
O         -5.2542000         -0.1590000          5.1310000
O         -4.6152000         -3.9620000          7.4740000
O         -3.2502000         -2.6150000          3.8720000
O         -2.7642000         -4.4710000          5.6730000
Si        -4.1702000         -4.9580000         -4.5020000
Si        -6.3782000         -1.1330000         -6.3020000
O         -5.7392000         -2.0150000         -7.4740000
O         -3.8892000         -1.5080000         -3.8720000
O         -5.2542000         -0.1590000         -5.6730000
O         -4.6152000         -3.9620000         -3.3300000
O         -3.2502000         -2.6150000         -6.9320000
O         -2.7642000         -4.4710000         -5.1310000
Si         4.1702000          7.3170000         -2.7010000
Si         4.3342000          4.8620000          0.9000000
O          2.7652000          7.8050000         -2.0720000
O          3.8892000          5.8580000          2.0720000
O          5.2542000          7.2050000         -1.5300000
O          5.7402000          5.3490000          0.2710000
Si        -4.3342000         -7.4130000         -2.7010000
Si        -6.3782000         -6.0430000         -0.9000000
O         -5.7392000         -6.9250000         -2.0720000
O         -3.8892000         -6.4180000          1.5300000
O         -5.2542000         -5.0690000         -0.2710000
O         -3.2502000         -7.5250000         -1.5300000
Si         4.1702000          7.3170000          2.7010000
Si         4.3342000          4.8620000          6.3020000
O          2.7652000          7.8050000          3.3300000
O          3.8892000          5.8580000          7.4740000
O          5.2542000          7.2050000          3.8720000
O          5.7402000          5.3490000          5.6730000
Si         4.3342000          4.8620000         -4.5020000
O          2.7652000          7.8050000         -7.4740000
O          3.8892000          5.8580000         -3.3300000
O          5.2542000          7.2050000         -6.9320000
O          5.7402000          5.3490000         -5.1310000
Si        -4.3342000         -7.4130000          2.7010000
Si        -6.3782000         -6.0430000          4.5020000
O         -5.7392000         -6.9250000          3.3300000
O         -3.8892000         -6.4180000          6.9320000
O         -5.2542000         -5.0690000          5.1310000
O         -3.2502000         -7.5250000          3.8720000
Si        -6.3782000         -6.0430000         -6.3020000
O         -5.7392000         -6.9250000         -7.4740000
O         -3.8892000         -6.4180000         -3.8720000
O         -5.2542000         -5.0690000         -5.6730000
O         -3.2502000         -7.5250000         -6.9320000
Si         8.4224000         -4.9580000         -2.7010000
Si         8.5864000         -7.4130000          0.9000000
Si         6.3784000         -3.5880000         -0.9000000
O          7.0174000         -4.4700000         -2.0720000
O          8.8674000         -3.9630000          1.5300000
O          7.5024000         -2.6140000         -0.2710000
O          8.1414000         -6.4170000          2.0720000
O          9.5064000         -5.0700000         -1.5300000
O          9.9924000         -6.9260000          0.2710000
Si        -8.5864000          4.8620000         -2.7010000
Si        -8.4224000          2.4070000          0.9000000
Si       -10.6304000          6.2320000         -0.9000000
O         -9.9914000          5.3500000         -2.0720000
O         -8.1414000          5.8570000          1.5300000
O         -9.5064000          7.2060000         -0.2710000
O         -8.8674000          3.4030000          2.0720000
O         -7.5024000          4.7500000         -1.5300000
O         -7.0164000          2.8940000          0.2710000
Si         8.4224000         -4.9580000          2.7010000
Si         8.5864000         -7.4130000          6.3020000
Si         6.3784000         -3.5880000          4.5020000
O          7.0174000         -4.4700000          3.3300000
O          8.8674000         -3.9630000          6.9320000
O          7.5024000         -2.6140000          5.1310000
O          8.1414000         -6.4170000          7.4740000
O          9.5064000         -5.0700000          3.8720000
O          9.9924000         -6.9260000          5.6730000
Si         8.5864000         -7.4130000         -4.5020000
Si         6.3784000         -3.5880000         -6.3020000
O          7.0174000         -4.4700000         -7.4740000
O          8.8674000         -3.9630000         -3.8720000
O          7.5024000         -2.6140000         -5.6730000
O          8.1414000         -6.4170000         -3.3300000
O          9.5064000         -5.0700000         -6.9320000
O          9.9924000         -6.9260000         -5.1310000
Si        -8.5864000          4.8620000          2.7010000
Si        -8.4224000          2.4070000          6.3020000
Si       -10.6304000          6.2320000          4.5020000
O         -9.9914000          5.3500000          3.3300000
O         -8.1414000          5.8570000          6.9320000
O         -9.5064000          7.2060000          5.1310000
O         -8.8674000          3.4030000          7.4740000
O         -7.5024000          4.7500000          3.8720000
O         -7.0164000          2.8940000          5.6730000
Si        -8.4224000          2.4070000         -4.5020000
Si       -10.6304000          6.2320000         -6.3020000
O         -9.9914000          5.3500000         -7.4740000
O         -8.1414000          5.8570000         -3.8720000
O         -9.5064000          7.2060000         -5.6730000
O         -8.8674000          3.4030000         -3.3300000
O         -7.5024000          4.7500000         -6.9320000
O         -7.0164000          2.8940000         -5.1310000
Si         8.4224000         -0.0480000         -2.7010000
Si         8.5864000         -2.5030000          0.9000000
Si         6.3784000          1.3220000         -0.9000000
O          7.0174000          0.4400000         -2.0720000
O          8.8674000          0.9470000          1.5300000
O          7.5024000          2.2960000         -0.2710000
O          8.1414000         -1.5070000          2.0720000
O          9.5064000         -0.1600000         -1.5300000
O          9.9924000         -2.0160000          0.2710000
O          7.5024000         -7.5240000         -0.2710000
Si        -8.4224000          7.3170000          0.9000000
O         -7.0164000          7.8040000          0.2710000
Si        -8.5864000         -0.0480000         -2.7010000
Si        -8.4224000         -2.5030000          0.9000000
Si       -10.6304000          1.3220000         -0.9000000
O         -9.9914000          0.4400000         -2.0720000
O         -8.1414000          0.9470000          1.5300000
O         -9.5064000          2.2960000         -0.2710000
O         -8.8674000         -1.5070000          2.0720000
O         -7.5024000         -0.1600000         -1.5300000
O         -7.0164000         -2.0160000          0.2710000
Si         8.4224000         -0.0480000          2.7010000
Si         8.5864000         -2.5030000          6.3020000
Si         6.3784000          1.3220000          4.5020000
O          7.0174000          0.4400000          3.3300000
O          8.8674000          0.9470000          6.9320000
O          7.5024000          2.2960000          5.1310000
O          8.1414000         -1.5070000          7.4740000
O          9.5064000         -0.1600000          3.8720000
O          9.9924000         -2.0160000          5.6730000
Si         8.5864000         -2.5030000         -4.5020000
Si         6.3784000          1.3220000         -6.3020000
O          7.0174000          0.4400000         -7.4740000
O          8.8674000          0.9470000         -3.8720000
O          7.5024000          2.2960000         -5.6730000
O          8.1414000         -1.5070000         -3.3300000
O          9.5064000         -0.1600000         -6.9320000
O          9.9924000         -2.0160000         -5.1310000
O          7.5024000         -7.5240000          5.1310000
O          7.5024000         -7.5240000         -5.6730000
Si        -8.4224000          7.3170000          6.3020000
O         -7.0164000          7.8040000          5.6730000
Si        -8.4224000          7.3170000         -4.5020000
O         -7.0164000          7.8040000         -5.1310000
Si        -8.5864000         -0.0480000          2.7010000
Si        -8.4224000         -2.5030000          6.3020000
Si       -10.6304000          1.3220000          4.5020000
O         -9.9914000          0.4400000          3.3300000
O         -8.1414000          0.9470000          6.9320000
O         -9.5064000          2.2960000          5.1310000
O         -8.8674000         -1.5070000          7.4740000
O         -7.5024000         -0.1600000          3.8720000
O         -7.0164000         -2.0160000          5.6730000
Si        -8.4224000         -2.5030000         -4.5020000
Si       -10.6304000          1.3220000         -6.3020000
O         -9.9914000          0.4400000         -7.4740000
O         -8.1414000          0.9470000         -3.8720000
O         -9.5064000          2.2960000         -5.6730000
O         -8.8674000         -1.5070000         -3.3300000
O         -7.5024000         -0.1600000         -6.9320000
O         -7.0164000         -2.0160000         -5.1310000
Si         8.4224000          4.8620000         -2.7010000
Si         8.5864000          2.4070000          0.9000000
Si         6.3784000          6.2320000         -0.9000000
O          7.0174000          5.3500000         -2.0720000
O          8.8674000          5.8570000          1.5300000
O          7.5024000          7.2060000         -0.2710000
O          8.1414000          3.4030000          2.0720000
O          9.5064000          4.7500000         -1.5300000
O          9.9924000          2.8940000          0.2710000
Si        -8.5864000         -4.9580000         -2.7010000
Si        -8.4224000         -7.4130000          0.9000000
Si       -10.6304000         -3.5880000         -0.9000000
O         -9.9914000         -4.4700000         -2.0720000
O         -8.1414000         -3.9630000          1.5300000
O         -9.5064000         -2.6140000         -0.2710000
O         -8.8674000         -6.4170000          2.0720000
O         -7.5024000         -5.0700000         -1.5300000
O         -7.0164000         -6.9260000          0.2710000
Si         8.4224000          4.8620000          2.7010000
Si         8.5864000          2.4070000          6.3020000
Si         6.3784000          6.2320000          4.5020000
O          7.0174000          5.3500000          3.3300000
O          8.8674000          5.8570000          6.9320000
O          7.5024000          7.2060000          5.1310000
O          8.1414000          3.4030000          7.4740000
O          9.5064000          4.7500000          3.8720000
O          9.9924000          2.8940000          5.6730000
Si         8.5864000          2.4070000         -4.5020000
Si         6.3784000          6.2320000         -6.3020000
O          7.0174000          5.3500000         -7.4740000
O          8.8674000          5.8570000         -3.8720000
O          7.5024000          7.2060000         -5.6730000
O          8.1414000          3.4030000         -3.3300000
O          9.5064000          4.7500000         -6.9320000
O          9.9924000          2.8940000         -5.1310000
Si        -8.5864000         -4.9580000          2.7010000
Si        -8.4224000         -7.4130000          6.3020000
Si       -10.6304000         -3.5880000          4.5020000
O         -9.9914000         -4.4700000          3.3300000
O         -8.1414000         -3.9630000          6.9320000
O         -9.5064000         -2.6140000          5.1310000
O         -8.8674000         -6.4170000          7.4740000
O         -7.5024000         -5.0700000          3.8720000
O         -7.0164000         -6.9260000          5.6730000
Si        -8.4224000         -7.4130000         -4.5020000
Si       -10.6304000         -3.5880000         -6.3020000
O         -9.9914000         -4.4700000         -7.4740000
O         -8.1414000         -3.9630000         -3.8720000
O         -9.5064000         -2.6140000         -5.6730000
O         -8.8674000         -6.4170000         -3.3300000
O         -7.5024000         -5.0700000         -6.9320000
O         -7.0164000         -6.9260000         -5.1310000
Si         8.5864000          7.3170000          0.9000000
O          9.9924000          7.8040000          0.2710000
O         -9.5064000         -7.5240000         -0.2710000
Si         8.5864000          7.3170000          6.3020000
O          9.9924000          7.8040000          5.6730000
Si         8.5864000          7.3170000         -4.5020000
O          9.9924000          7.8040000         -5.1310000
O         -9.5064000         -7.5240000          5.1310000
O         -9.5064000         -7.5240000         -5.6730000
Si        10.6306000         -6.0430000         -0.9000000
O         11.2696000         -6.9250000         -2.0720000
O        -11.2686000          5.3490000          0.2710000
Si        10.6306000         -6.0430000          4.5020000
O         11.2696000         -6.9250000          3.3300000
Si        10.6306000         -6.0430000         -6.3020000
O         11.2696000         -6.9250000         -7.4740000
O        -11.2686000          5.3490000          5.6730000
O        -11.2686000          5.3490000         -5.1310000
Si        10.6306000         -1.1330000         -0.9000000
O         11.2696000         -2.0150000         -2.0720000
O        -11.2686000          0.4390000          0.2710000
Si        10.6306000         -1.1330000          4.5020000
O         11.2696000         -2.0150000          3.3300000
Si        10.6306000         -1.1330000         -6.3020000
O         11.2696000         -2.0150000         -7.4740000
O        -11.2686000          0.4390000          5.6730000
O        -11.2686000          0.4390000         -5.1310000
Si        10.6306000          3.7770000         -0.9000000
O         11.2696000          2.8950000         -2.0720000
O        -11.2686000         -4.4710000          0.2710000
Si        10.6306000          3.7770000          4.5020000
O         11.2696000          2.8950000          3.3300000
Si        10.6306000          3.7770000         -6.3020000
O         11.2696000          2.8950000         -7.4740000
O        -11.2686000         -4.4710000          5.6730000
O        -11.2686000         -4.4710000         -5.1310000
O         11.2696000          7.8050000         -2.0720000
O         11.2696000          7.8050000          3.3300000
O         11.2696000          7.8050000         -7.4740000
