139
graphite coordinates with no atoms with  only one bond to another atom
O          0.0000000          0.0000000          0.0000000
C         -1.7966667         -1.0373060         -3.3500000
C         -0.5716667         -0.3300519         -3.3500000
N         -1.7966667         -1.0373060         -0.0000000
N          0.6533333          0.3772022         -0.0000000
C         -1.7966667         -1.0373060          3.3500000
C         -0.5716667         -0.3300519          3.3500000
C         -0.5716667          1.0844563         -3.3500000
C          0.6533333          1.7917103         -3.3500000
N         -0.5716667          1.0844563         -0.0000000
N          1.8783333          2.4989644         -0.0000000
C         -3.0216667         -3.1590682         -3.3500000
C         -1.7966667         -2.4518141         -3.3500000
N         -3.0216667         -3.1590682         -0.0000000
N         -0.5716667         -1.7445601         -0.0000000
C         -0.5716667          1.0844563          3.3500000
C          0.6533333          1.7917103          3.3500000
C         -3.0216667         -3.1590682          3.3500000
C         -1.7966667         -2.4518141          3.3500000
C          0.6533333          3.2062185         -3.3500000
C          1.8783333          3.9134726         -3.3500000
N          0.6533333          3.2062185         -0.0000000
N         -1.7966667         -3.8663223         -0.0000000
C          0.6533333          3.2062185          3.3500000
C          1.8783333          3.9134726          3.3500000
C          0.6533333         -1.0373060         -3.3500000
C          1.8783333         -0.3300519         -3.3500000
N          0.6533333         -1.0373060         -0.0000000
N          3.1033333          0.3772022         -0.0000000
C         -4.2466667         -1.0373060         -3.3500000
C         -3.0216667         -0.3300519         -3.3500000
N         -4.2466667         -1.0373060         -0.0000000
N         -1.7966667          0.3772022         -0.0000000
C          0.6533333         -1.0373060          3.3500000
C          1.8783333         -0.3300519          3.3500000
C         -4.2466667         -1.0373060          3.3500000
C         -3.0216667         -0.3300519          3.3500000
C          1.8783333          1.0844563         -3.3500000
C          3.1033333          1.7917103         -3.3500000
N          1.8783333          1.0844563         -0.0000000
N          4.3283333          2.4989644         -0.0000000
C         -0.5716667         -3.1590682         -3.3500000
C          0.6533333         -2.4518141         -3.3500000
N         -0.5716667         -3.1590682         -0.0000000
N          1.8783333         -1.7445601         -0.0000000
C         -3.0216667          1.0844563         -3.3500000
C         -1.7966667          1.7917103         -3.3500000
N         -3.0216667          1.0844563         -0.0000000
N         -0.5716667          2.4989644         -0.0000000
C         -5.4716667         -3.1590682         -3.3500000
C         -4.2466667         -2.4518141         -3.3500000
N         -5.4716667         -3.1590682         -0.0000000
N         -3.0216667         -1.7445601         -0.0000000
C          1.8783333          1.0844563          3.3500000
C          3.1033333          1.7917103          3.3500000
C         -0.5716667         -3.1590682          3.3500000
C          0.6533333         -2.4518141          3.3500000
C         -3.0216667          1.0844563          3.3500000
C         -1.7966667          1.7917103          3.3500000
C         -5.4716667         -3.1590682          3.3500000
C         -4.2466667         -2.4518141          3.3500000
C          3.1033333          3.2062185         -3.3500000
C          4.3283333          3.9134726         -3.3500000
N          3.1033333          3.2062185         -0.0000000
N          0.6533333         -3.8663223         -0.0000000
C         -1.7966667          3.2062185         -3.3500000
C         -0.5716667          3.9134726         -3.3500000
N         -1.7966667          3.2062185         -0.0000000
N         -4.2466667         -3.8663223         -0.0000000
C          3.1033333          3.2062185          3.3500000
C          4.3283333          3.9134726          3.3500000
C         -1.7966667          3.2062185          3.3500000
C         -0.5716667          3.9134726          3.3500000
C          3.1033333         -1.0373060         -3.3500000
C          4.3283333         -0.3300519         -3.3500000
N          3.1033333         -1.0373060         -0.0000000
N          5.5533333          0.3772022         -0.0000000
C         -6.6966667         -1.0373060         -3.3500000
C         -5.4716667         -0.3300519         -3.3500000
N         -6.6966667         -1.0373060         -0.0000000
N         -4.2466667          0.3772022         -0.0000000
C          3.1033333         -1.0373060          3.3500000
C          4.3283333         -0.3300519          3.3500000
C         -6.6966667         -1.0373060          3.3500000
C         -5.4716667         -0.3300519          3.3500000
C          4.3283333          1.0844563         -3.3500000
C          5.5533333          1.7917103         -3.3500000
N          4.3283333          1.0844563         -0.0000000
N          6.7783333          2.4989644         -0.0000000
C          1.8783333         -3.1590682         -3.3500000
C          3.1033333         -2.4518141         -3.3500000
N          1.8783333         -3.1590682         -0.0000000
N          4.3283333         -1.7445601         -0.0000000
C         -5.4716667          1.0844563         -3.3500000
C         -4.2466667          1.7917103         -3.3500000
N         -5.4716667          1.0844563         -0.0000000
N         -3.0216667          2.4989644         -0.0000000
C         -6.6966667         -2.4518141         -3.3500000
N         -5.4716667         -1.7445601         -0.0000000
C          4.3283333          1.0844563          3.3500000
C          5.5533333          1.7917103          3.3500000
C          1.8783333         -3.1590682          3.3500000
C          3.1033333         -2.4518141          3.3500000
C         -5.4716667          1.0844563          3.3500000
C         -4.2466667          1.7917103          3.3500000
C         -6.6966667         -2.4518141          3.3500000
C          5.5533333          3.2062185         -3.3500000
N          5.5533333          3.2062185         -0.0000000
N          3.1033333         -3.8663223         -0.0000000
C         -4.2466667          3.2062185         -3.3500000
C         -3.0216667          3.9134726         -3.3500000
N         -4.2466667          3.2062185         -0.0000000
C          5.5533333          3.2062185          3.3500000
C         -4.2466667          3.2062185          3.3500000
C         -3.0216667          3.9134726          3.3500000
C          5.5533333         -1.0373060         -3.3500000
C          6.7783333         -0.3300519         -3.3500000
N          5.5533333         -1.0373060         -0.0000000
N         -6.6966667          0.3772022         -0.0000000
C          5.5533333         -1.0373060          3.3500000
C          6.7783333         -0.3300519          3.3500000
C          6.7783333          1.0844563         -3.3500000
N          6.7783333          1.0844563         -0.0000000
C          4.3283333         -3.1590682         -3.3500000
C          5.5533333         -2.4518141         -3.3500000
N          4.3283333         -3.1590682         -0.0000000
N          6.7783333         -1.7445601         -0.0000000
C         -6.6966667          1.7917103         -3.3500000
N         -5.4716667          2.4989644         -0.0000000
C          6.7783333          1.0844563          3.3500000
C          4.3283333         -3.1590682          3.3500000
C          5.5533333         -2.4518141          3.3500000
C         -6.6966667          1.7917103          3.3500000
N          5.5533333         -3.8663223         -0.0000000
C         -6.6966667          3.2062185         -3.3500000
C         -5.4716667          3.9134726         -3.3500000
C         -6.6966667          3.2062185          3.3500000
C         -5.4716667          3.9134726          3.3500000
N          6.7783333         -3.1590682         -0.0000000
